Version 4
SHEET 1 1100 680
WIRE -112 -48 -320 -48
WIRE -128 0 -160 0
WIRE -112 0 -112 -48
WIRE -128 48 -128 0
WIRE -320 64 -320 -48
WIRE -192 64 -320 64
WIRE -32 112 -32 48
WIRE 48 112 -32 112
WIRE 160 112 128 112
WIRE 256 112 224 112
WIRE -32 176 -32 112
WIRE -192 256 -192 64
WIRE -48 256 -48 224
WIRE -48 256 -192 256
FLAG -320 144 0
FLAG 256 112 0
FLAG 128 192 0
FLAG -128 176 0
FLAG -240 0 0
SYMBOL ind 32 128 R270
WINDOW 0 32 56 VTop 2
WINDOW 3 5 56 VBottom 2
SYMATTR InstName L1
SYMATTR Value .1
SYMBOL cap 160 128 R270
WINDOW 0 32 32 VTop 2
WINDOW 3 0 32 VBottom 2
SYMATTR InstName C1
SYMATTR Value .000000025
SYMBOL voltage -320 48 R0
WINDOW 123 0 0 Left 2
WINDOW 39 0 0 Left 2
WINDOW 3 -206 249 Left 2
SYMATTR InstName V1
SYMATTR Value PULSE(0 30 0 .00001 .00001 .0029 .00312 10)
SYMBOL res 112 96 R0
SYMATTR InstName R1
SYMATTR Value 100000
SYMBOL nmos -128 224 R270
SYMATTR InstName M1
SYMATTR Value BSB014N04LX3
SYMBOL pmos -32 0 R90
SYMATTR InstName M2
SYMATTR Value FDS4685
SYMBOL voltage -144 0 R90
WINDOW 0 -32 56 VBottom 2
WINDOW 3 32 56 VTop 2
WINDOW 123 0 0 Left 2
WINDOW 39 0 0 Left 2
SYMATTR InstName V2
SYMATTR Value 25
TEXT -48 216 Left 2 !.tran .1
