Version 4
SHEET 1 3192 680
WIRE 2352 -16 1952 -16
WIRE 2352 48 2352 -16
WIRE 1952 192 1952 -16
WIRE 2288 304 2288 272
WIRE 2432 304 2432 272
WIRE 2288 416 2288 384
WIRE 2368 416 2288 416
WIRE 2432 416 2432 384
WIRE 2432 416 2368 416
WIRE 2496 416 2432 416
WIRE 2624 416 2576 416
WIRE 2736 416 2736 368
WIRE 2736 416 2624 416
WIRE 2624 448 2624 416
WIRE 1952 528 1952 272
WIRE 2240 528 1952 528
WIRE 2368 528 2368 496
WIRE 2368 528 2240 528
WIRE 2624 528 2624 512
WIRE 2624 528 2368 528
WIRE 2240 576 2240 528
FLAG 2240 576 0
FLAG 2736 368 PIC
SYMBOL res 2352 400 R0
SYMATTR InstName R2
SYMATTR Value {R}
SYMBOL voltage 1952 176 R0
WINDOW 123 0 0 Left 2
WINDOW 39 0 0 Left 2
SYMATTR InstName V2
SYMATTR Value 4.2
SYMBOL PowerProducts\\LT3092 2352 160 R0
SYMATTR InstName U2
SYMBOL res 2272 288 R0
SYMATTR InstName R1
SYMATTR Value 1000
SYMBOL res 2416 288 R0
SYMATTR InstName R3
SYMATTR Value 10
SYMBOL res 2592 400 R90
WINDOW 0 0 56 VBottom 2
WINDOW 3 32 56 VTop 2
SYMATTR InstName R4
SYMATTR Value 10k
SYMBOL zener 2640 512 R180
WINDOW 0 24 64 Left 2
WINDOW 3 24 0 Left 2
SYMATTR InstName D1
SYMATTR Value 1N750
TEXT 1920 600 Left 2 !.step param R 0.01 100000 100
TEXT 1920 624 Left 2 !.op
