Version 4
SHEET 1 880 680
WIRE -160 96 -240 96
WIRE 32 96 -96 96
WIRE 128 96 32 96
WIRE 400 96 384 96
WIRE 416 96 400 96
WIRE 624 96 416 96
WIRE 752 96 624 96
WIRE 32 144 32 96
WIRE 816 176 752 176
WIRE 400 240 400 96
WIRE 400 240 336 240
WIRE 576 336 496 336
WIRE 816 336 816 176
WIRE 816 336 576 336
WIRE 256 352 256 192
WIRE 336 352 336 320
WIRE 336 352 256 352
WIRE 496 352 496 336
WIRE 256 368 256 352
WIRE 416 416 416 96
WIRE 576 448 576 336
WIRE 496 464 496 432
WIRE 544 464 496 464
WIRE 752 480 608 480
WIRE 416 496 352 496
WIRE 544 496 528 496
WIRE 752 512 752 480
WIRE 352 528 352 496
WIRE 448 528 352 528
WIRE 496 576 496 528
WIRE 576 576 576 512
WIRE 576 576 496 576
WIRE 672 576 576 576
WIRE 672 592 672 576
WIRE 752 592 672 592
WIRE 448 608 448 528
WIRE 528 608 528 496
WIRE 528 608 448 608
WIRE 576 608 576 576
FLAG 256 448 0
FLAG 352 608 0
FLAG 32 208 0
FLAG -240 176 0
FLAG 624 160 0
FLAG 752 240 0
FLAG 576 608 0
SYMBOL PowerProducts\\LT1083 256 96 R0
SYMATTR InstName U1
SYMBOL cap 16 144 R0
SYMATTR InstName C1
SYMATTR Value 10µf
SYMBOL res 240 352 R0
SYMATTR InstName R1
SYMATTR Value 4.8k
SYMBOL cap 608 96 R0
SYMATTR InstName C2
SYMATTR Value 10µf
SYMBOL Opamps\\LTC6244 576 480 R0
SYMATTR InstName U2
SYMBOL res 736 80 R0
SYMATTR InstName R3
SYMATTR Value 2k
SYMBOL zener -96 80 R90
WINDOW 0 -4 32 VBottom 2
WINDOW 3 36 32 VTop 2
SYMATTR InstName D1
SYMATTR Value KDZ27B
SYMBOL zener 768 240 R180
WINDOW 0 24 64 Left 2
WINDOW 3 24 0 Left 2
SYMATTR InstName D2
SYMATTR Value UMZ12K
SYMBOL res 400 400 R0
SYMATTR InstName R4
SYMATTR Value 10k
SYMBOL res 336 512 R0
SYMATTR InstName R5
SYMATTR Value 1k
SYMBOL res 480 336 R0
SYMATTR InstName R6
SYMATTR Value 2k
SYMBOL zener 512 528 R180
WINDOW 0 24 64 Left 2
WINDOW 3 24 0 Left 2
SYMATTR InstName D3
SYMATTR Value UDZV6_2B
SYMBOL res 320 224 R0
SYMATTR InstName R7
SYMATTR Value 240
SYMBOL voltage -240 80 R0
WINDOW 123 0 0 Left 2
WINDOW 39 0 0 Left 2
SYMATTR InstName V1
SYMATTR Value SINE(60 10 100)
SYMBOL res 736 496 R0
SYMATTR InstName R2
SYMATTR Value 100k
TEXT -272 632 Left 2 !.tran .2
