Version 4
SHEET 1 1284 680
WIRE 1056 48 912 48
WIRE -160 96 -240 96
WIRE 32 96 -96 96
WIRE 128 96 32 96
WIRE 400 96 384 96
WIRE 624 96 400 96
WIRE 832 96 624 96
WIRE 832 128 832 96
WIRE 864 128 832 128
WIRE 32 144 32 96
WIRE 912 192 912 144
WIRE 400 240 400 96
WIRE 400 240 336 240
WIRE 256 352 256 192
WIRE 336 352 336 320
WIRE 336 352 256 352
WIRE 256 368 256 352
FLAG 256 448 0
FLAG 32 208 0
FLAG -240 176 0
FLAG 624 160 0
FLAG 1056 128 0
FLAG 912 336 0
SYMBOL PowerProducts\\LT1083 256 96 R0
SYMATTR InstName U1
SYMBOL cap 16 144 R0
SYMATTR InstName C1
SYMATTR Value 10µf
SYMBOL res 240 352 R0
SYMATTR InstName R1
SYMATTR Value 1k
SYMBOL cap 608 96 R0
SYMATTR InstName C2
SYMATTR Value 10µf
SYMBOL zener -96 80 R90
WINDOW 0 -4 32 VBottom 2
WINDOW 3 36 32 VTop 2
SYMATTR InstName D1
SYMATTR Value KDZ27B
SYMBOL res 320 224 R0
SYMATTR InstName R7
SYMATTR Value 240
SYMBOL voltage -240 80 R0
WINDOW 123 0 0 Left 2
WINDOW 39 0 0 Left 2
SYMATTR InstName V1
SYMATTR Value 300
SYMBOL nmos 864 48 R0
SYMATTR InstName M1
SYMBOL LED 896 192 R0
SYMATTR InstName D2
SYMATTR Value W5AP-LZMZ-5K8L
SYMBOL res 896 240 R0
SYMATTR InstName R3
SYMATTR Value 1k
SYMBOL voltage 1056 32 R0
WINDOW 123 0 0 Left 2
WINDOW 39 0 0 Left 2
SYMATTR InstName V2
SYMATTR Value 28
TEXT -272 632 Left 2 !.tran 50u startup
